
Circuit: *title: t1 circuit

Doing analysis at TEMP = 27.000000 and TNOM = 27.000000


No. of Data Rows : 1
********************************************
Operating point
********************************************
op2_TAB
@gb[i] = 0.000000e+00
@r1[i] = 0.000000e+00
@r2[i] = 0.000000e+00
@r3[i] = 0.000000e+00
@r4[i] = 0.000000e+00
@r5[i] = 2.699137e-03
@r6[i] = 0.000000e+00
@r7[i] = 0.000000e+00
hd#branch = 2.699137e-03
n2 = 0.000000e+00
n3 = 0.000000e+00
n5 = 0.000000e+00
n6 = 8.351528e+00
n7 = 0.000000e+00
n8 = 0.000000e+00
na = 0.000000e+00
vab#branch = 0.000000e+00
vx#branch = -2.69914e-03
op2_END
ngspice-31 done
