
Circuit: *title: t1 circuit

********************************************
tran of total solution
********************************************
Doing analysis at TEMP = 27.000000 and TNOM = 27.000000


Initial Transient Solution
--------------------------

Node                                   Voltage
----                                   -------
n1                                           0
na                                           0
n2                                -5.44472e-13
n3                                -1.64227e-12
n5                                -4.69154e-13
n6                                     8.35153
n7                                 1.80621e-13
n8                                 2.69914e-13
hd#branch                           0.00269914
vab#branch                        -8.90898e-17
vs#branch                         -5.21715e-16


No. of Data Rows : 2008

The file "trans2.ps" may be printed on a postscript printer.
trans2_FIG
ngspice-31 done
