
Circuit: *title: t1 circuit

Doing analysis at TEMP = 27.000000 and TNOM = 27.000000


No. of Data Rows : 1
********************************************
Operating point
********************************************
op1_TAB
@c1[i] = 0.000000e+00
@gb[i] = -2.46392e-04
@r1[i] = 2.354321e-04
@r2[i] = -2.46392e-04
@r3[i] = -1.09596e-05
@r4[i] = 1.150256e-03
@r5[i] = 2.463916e-04
@r6[i] = 9.148235e-04
@r7[i] = 9.148235e-04
hd#branch = -9.14824e-04
n1 = 5.029246e+00
n2 = 4.783544e+00
n3 = 4.288147e+00
n5 = 4.817533e+00
n6 = 5.579905e+00
n7 = -1.85471e+00
n8 = -2.77162e+00
na = 0.000000e+00
vab#branch = 9.148235e-04
vs#branch = -2.35432e-04
op1_END
ngspice-31 done
