
Circuit: *title: t1 circuit

********************************************
Frequency analysis
********************************************
Doing analysis at TEMP = 27.000000 and TNOM = 27.000000


No. of Data Rows : 81

The file "acm.ps" may be printed on a postscript printer.
acm_FIG

The file "acp.ps" may be printed on a postscript printer.
acp_FIG
ngspice-31 done
