
Circuit: *title: t1 circuit

********************************************
Operating point
********************************************
Doing analysis at TEMP = 27.000000 and TNOM = 27.000000


Initial Transient Solution
--------------------------

Node                                   Voltage
----                                   -------
n1                                           0
na                                           0
n2                                           0
n3                                           0
n5                                           0
n6                                           0
n7                                           0
n8                                           0
hd#branch                                    0
vab#branch                                   0
vs#branch                                    0


No. of Data Rows : 2012

The file "trans2.ps" may be printed on a postscript printer.
trans2_FIG
ngspice-31 done
