
Circuit: .options savecurrents

Doing analysis at TEMP = 27.000000 and TNOM = 27.000000


Initial Transient Solution
--------------------------

Node                                   Voltage
----                                   -------
vcc                                         12
coll                                   11.7075
aux                                          0
emit2                                       12
out                                          0
vaux#branch                                  0
vcc#branch                        -2.11258e-09


No. of Data Rows : 1008
inputimpoutput_TAB
v(aux)[40]/i(vaux)[40] = 6.577174e+04
inputimpoutput_END
ngspice-31 done
