
Circuit: *title: t1 circuit

Doing analysis at TEMP = 27.000000 and TNOM = 27.000000


No. of Data Rows : 1
********************************************
Operating point
********************************************
op_TAB
i(vaa) = -2.35432e-04
i(vab) = 9.148235e-04
i(hc) = 1.160540e-04
@gb[i] = -2.46392e-04
@idd[current] = 1.030878e-03
@r1[i] = 2.354321e-04
@r2[i] = -2.46392e-04
@r3[i] = -1.09596e-05
@r4[i] = 1.150256e-03
@r5[i] = 1.277269e-03
@r6[i] = 9.148235e-04
@r7[i] = 9.148235e-04
hc#branch = 1.160540e-04
n1 = -2.45702e-01
n2 = -7.41099e-01
n3 = -5.02925e+00
n4 = -2.11713e-01
n5 = 3.740346e+00
n6 = -6.88396e+00
n7 = -7.80087e+00
na = -5.02925e+00
vaa#branch = -2.35432e-04
vab#branch = 9.148235e-04
op_END
ngspice-31 done
